Program Version,EnergyPlus, Version 25.1.0-68a4a7c774, YMD=2026.03.26 21:45
! This file shows details about the branches, nodes, and other
! elements of the flow connections.
! This file is intended for use in "debugging" potential problems
! that may also be detected by the program, but may be more easily
! identified by "eye".
! This file is also intended to support software which draws a
! schematic diagram of the HVAC system.
! ===============================================================
! #Nodes,<Number of Unique Nodes>
 #Nodes,65
! <Node>,<NodeNumber>,<Node Name>,<Node Fluid Type>,<# Times Node Referenced After Definition>
 Node,1,{312A8D5D-EFAD-4F34-A043-318222F9B3D1},Air,2
 Node,2,{4E65039F-C3A1-4D2D-AFDA-A3FADAAE5536},Air,2
 Node,3,{9540BFB6-3666-44E8-8AC3-F38F05F4744D},Air,2
 Node,4,{C5C4D6D2-532D-4913-BDCA-1040FA967D1B},Air,2
 Node,5,{8AAFCD0A-888F-4766-87B0-BF770769EA3C},Air,2
 Node,6,{C182419D-5368-4D12-8734-305357537103},Air,2
 Node,7,{871124D3-8D21-4F79-AF47-8E4E923FDD07},Air,2
 Node,8,{AE1BF4B0-1D29-47C6-A272-A258F592EEFA},Air,2
 Node,9,{8C3BC6EB-6C20-4FCC-AA51-190141BF27EB},Air,2
 Node,10,{1945CA15-E25E-4159-8402-5916E7175383},Air,2
 Node,11,{7BE10957-A0FC-4399-8BD6-DE602B57179C},Air,2
 Node,12,{D76B17AD-F58A-494F-8422-F4A934111730},Air,2
 Node,13,{191D19E3-E991-44D7-B444-F82B9ECF4E40},Air,2
 Node,14,{2B385707-1CD1-4ACA-973B-70811CE6C80B},Air,2
 Node,15,{86B9A167-15A4-4CE9-8916-1D693899BBFA},Air,2
 Node,16,{B80F4A44-A25F-4CC3-BFA7-9EF41D2BACA7},Air,2
 Node,17,{C6AA962E-B6EF-4B0E-83C7-96F548869251},Air,2
 Node,18,{E76A09E9-74A7-4520-BBA2-E524F25AD060},Air,2
 Node,19,{58C76649-73EF-4A47-B3EC-0AE28A67810A},Air,2
 Node,20,{DD9FFA4D-6758-462C-B466-1F6F3A76E944},Air,2
 Node,21,{EA3CB4C7-B2EE-4383-AA53-EBB1E61B1841},Air,2
 Node,22,{EAB73D0A-EA95-4BC0-8477-5831F8009ED5},Air,2
 Node,23,{AD9CC430-6A0B-444D-8F58-A3C32B453C76},Air,2
 Node,24,{E92CF82F-0580-45C0-86C3-925A00D811C1},Air,2
 Node,25,{0D3495CA-094D-4880-A0D1-474DED9704D1},Air,2
 Node,26,{5D0A9B03-7C71-41B0-B24C-F9826FF26518},Air,2
 Node,27,{C4BE4ED3-9E33-4EA8-9F3F-C26F4ED266F0},Air,2
 Node,28,{BB5DD701-15C2-40E1-9CA9-2485A04002F5},Air,2
 Node,29,{49AAEB17-D182-48B5-942A-C62FB49B80CD},Air,2
 Node,30,{AE2B3BF3-C86F-4978-8E3E-09E55CCE7448},Air,2
 Node,31,{6ED4506C-6C1F-4525-BF14-F6A976AAE487},Air,2
 Node,32,{7E551D2D-B470-42AD-9AA6-61E0A5BB8575},Air,2
 Node,33,{6D2DC2FF-3A83-4EEE-9B15-FEE11363D60F},Air,0
 Node,34,{92655FFC-B697-4450-A67C-F082D4878334},Air,0
 Node,35,{F7518323-80EC-4A9C-819C-762A02F2DEFF},Air,0
 Node,36,{184A54DB-FA39-40A3-AF7A-DA6DA5520CE9},Air,0
 Node,37,{79E2B74E-FD01-41D0-B6B4-FF20CE4EA2E0},Air,0
 Node,38,{6911F45A-F18E-4304-A2F8-9BCCC63FAC5C},Air,0
 Node,39,{E0404C84-4863-457A-A3D6-34EE521601D5},Air,0
 Node,40,{B6F4AE25-6B00-463B-A04D-E45F3981EE27},Air,0
 Node,41,{1B44D53D-5579-43F0-965C-E26B000659AA},Air,0
 Node,42,{53C19609-899F-4F42-9A83-B2A73B62CE62},Air,0
 Node,43,{16630099-D038-43AD-A4FC-7CB131B6DDB6},Air,0
 Node,44,{8422218C-0890-4BA1-A1DA-44B65F57CFB1},Air,0
 Node,45,{59A35096-DEA5-4E9F-A628-85E3FB1520FD},Air,0
 Node,46,{A4F58666-E8AD-4359-A3B6-F296494675CE},Air,0
 Node,47,{C4E51858-CB84-487E-AD35-4DCD8A7E4476},Air,0
 Node,48,{2CA5945E-727F-4440-81E8-60328376376D},Air,0
 Node,49,MODEL OUTDOOR AIR NODE,Air,0
 Node,50,FLR1_OFFICE1 IDEAL LOADS AIR SYSTEM OUTDOOR AIR INLET NODE,Air,1
 Node,51,FLR1_OFFICE2 IDEAL LOADS AIR SYSTEM OUTDOOR AIR INLET NODE,Air,1
 Node,52,FLR1_OFFICE3 IDEAL LOADS AIR SYSTEM OUTDOOR AIR INLET NODE,Air,1
 Node,53,FLR1_OFFICE4 IDEAL LOADS AIR SYSTEM OUTDOOR AIR INLET NODE,Air,1
 Node,54,FLR2_OFFICE1 IDEAL LOADS AIR SYSTEM OUTDOOR AIR INLET NODE,Air,1
 Node,55,FLR2_OFFICE2 IDEAL LOADS AIR SYSTEM OUTDOOR AIR INLET NODE,Air,1
 Node,56,FLR2_OFFICE3 IDEAL LOADS AIR SYSTEM OUTDOOR AIR INLET NODE,Air,1
 Node,57,FLR2_OFFICE4 IDEAL LOADS AIR SYSTEM OUTDOOR AIR INLET NODE,Air,1
 Node,58,FLR3_OFFICE1 IDEAL LOADS AIR SYSTEM OUTDOOR AIR INLET NODE,Air,1
 Node,59,FLR3_OFFICE2 IDEAL LOADS AIR SYSTEM OUTDOOR AIR INLET NODE,Air,1
 Node,60,FLR3_OFFICE3 IDEAL LOADS AIR SYSTEM OUTDOOR AIR INLET NODE,Air,1
 Node,61,FLR3_OFFICE4 IDEAL LOADS AIR SYSTEM OUTDOOR AIR INLET NODE,Air,1
 Node,62,OFFICE1 IDEAL LOADS AIR SYSTEM OUTDOOR AIR INLET NODE,Air,1
 Node,63,OFFICE2 IDEAL LOADS AIR SYSTEM OUTDOOR AIR INLET NODE,Air,1
 Node,64,OFFICE3 IDEAL LOADS AIR SYSTEM OUTDOOR AIR INLET NODE,Air,1
 Node,65,OFFICE4 IDEAL LOADS AIR SYSTEM OUTDOOR AIR INLET NODE,Air,1
! ===============================================================
! Suspicious nodes have 0 references.  It is normal for some nodes, however.
! Listing nodes with 0 references (culled from previous list):
! <Suspicious Node>,<NodeNumber>,<Node Name>,<Node Fluid Type>,<# Times Node Referenced After Definition>
 Suspicious Node,33,{6D2DC2FF-3A83-4EEE-9B15-FEE11363D60F},Air,0
 Suspicious Node,34,{92655FFC-B697-4450-A67C-F082D4878334},Air,0
 Suspicious Node,35,{F7518323-80EC-4A9C-819C-762A02F2DEFF},Air,0
 Suspicious Node,36,{184A54DB-FA39-40A3-AF7A-DA6DA5520CE9},Air,0
 Suspicious Node,37,{79E2B74E-FD01-41D0-B6B4-FF20CE4EA2E0},Air,0
 Suspicious Node,38,{6911F45A-F18E-4304-A2F8-9BCCC63FAC5C},Air,0
 Suspicious Node,39,{E0404C84-4863-457A-A3D6-34EE521601D5},Air,0
 Suspicious Node,40,{B6F4AE25-6B00-463B-A04D-E45F3981EE27},Air,0
 Suspicious Node,41,{1B44D53D-5579-43F0-965C-E26B000659AA},Air,0
 Suspicious Node,42,{53C19609-899F-4F42-9A83-B2A73B62CE62},Air,0
 Suspicious Node,43,{16630099-D038-43AD-A4FC-7CB131B6DDB6},Air,0
 Suspicious Node,44,{8422218C-0890-4BA1-A1DA-44B65F57CFB1},Air,0
 Suspicious Node,45,{59A35096-DEA5-4E9F-A628-85E3FB1520FD},Air,0
 Suspicious Node,46,{A4F58666-E8AD-4359-A3B6-F296494675CE},Air,0
 Suspicious Node,47,{C4E51858-CB84-487E-AD35-4DCD8A7E4476},Air,0
 Suspicious Node,48,{2CA5945E-727F-4440-81E8-60328376376D},Air,0
 Suspicious Node,49,MODEL OUTDOOR AIR NODE,Air,0
! ===============================================================
! <#Branch Lists>,<Number of Branch Lists>
 #Branch Lists,0
! <Branch List>,<Branch List Count>,<Branch List Name>,<Loop Name>,<Loop Type>,<Number of Branches>
! <Branch>,<Branch Count>,<Branch Name>,<Loop Name>,<Loop Type>,<Branch Inlet Node Name>,<Branch Outlet Node Name>
! ===============================================================
! <#Supply Air Paths>,<Number of Supply Air Paths>
 #Supply Air Paths,0
! <Supply Air Path>,<Supply Air Path Count>,<Supply Air Path Name>,<AirLoopHVAC Name>
! <#Components on Supply Air Path>,<Number of Components>
! <Supply Air Path Component>,<Component Count>,<Component Type>,<Component Name>,<AirLoopHVAC Name>
! <#Outlet Nodes on Supply Air Path Component>,<Number of Nodes>
! <Supply Air Path Component Nodes>,<Node Count>,<Component Type>,<Component Name>,<Inlet Node Name>,<Outlet Node Name>,<AirLoopHVAC Name>
! ===============================================================
! <#Return Air Paths>,<Number of Return Air Paths>
 #Return Air Paths,0
! <Return Air Path>,<Return Air Path Count>,<Return Air Path Name>,<AirLoopHVAC Name>
! <#Components on Return Air Path>,<Number of Components>
! <Return Air Path Component>,<Component Count>,<Component Type>,<Component Name>,<AirLoopHVAC Name>
! <#Inlet Nodes on Return Air Path Component>,<Number of Nodes>
! <Return Air Path Component Nodes>,<Node Count>,<Component Type>,<Component Name>,<Inlet Node Name>,<Outlet Node Name>,<AirLoopHVAC Name>
! ===============================================================
! #Outdoor Air Nodes,<Number of Outdoor Air Nodes>
 #Outdoor Air Nodes,17
! <Outdoor Air Node>,<NodeNumber>,<Node Name>
 Outdoor Air Node,49,MODEL OUTDOOR AIR NODE
 Outdoor Air Node,50,FLR1_OFFICE1 IDEAL LOADS AIR SYSTEM OUTDOOR AIR INLET NODE
 Outdoor Air Node,51,FLR1_OFFICE2 IDEAL LOADS AIR SYSTEM OUTDOOR AIR INLET NODE
 Outdoor Air Node,52,FLR1_OFFICE3 IDEAL LOADS AIR SYSTEM OUTDOOR AIR INLET NODE
 Outdoor Air Node,53,FLR1_OFFICE4 IDEAL LOADS AIR SYSTEM OUTDOOR AIR INLET NODE
 Outdoor Air Node,54,FLR2_OFFICE1 IDEAL LOADS AIR SYSTEM OUTDOOR AIR INLET NODE
 Outdoor Air Node,55,FLR2_OFFICE2 IDEAL LOADS AIR SYSTEM OUTDOOR AIR INLET NODE
 Outdoor Air Node,56,FLR2_OFFICE3 IDEAL LOADS AIR SYSTEM OUTDOOR AIR INLET NODE
 Outdoor Air Node,57,FLR2_OFFICE4 IDEAL LOADS AIR SYSTEM OUTDOOR AIR INLET NODE
 Outdoor Air Node,58,FLR3_OFFICE1 IDEAL LOADS AIR SYSTEM OUTDOOR AIR INLET NODE
 Outdoor Air Node,59,FLR3_OFFICE2 IDEAL LOADS AIR SYSTEM OUTDOOR AIR INLET NODE
 Outdoor Air Node,60,FLR3_OFFICE3 IDEAL LOADS AIR SYSTEM OUTDOOR AIR INLET NODE
 Outdoor Air Node,61,FLR3_OFFICE4 IDEAL LOADS AIR SYSTEM OUTDOOR AIR INLET NODE
 Outdoor Air Node,62,OFFICE1 IDEAL LOADS AIR SYSTEM OUTDOOR AIR INLET NODE
 Outdoor Air Node,63,OFFICE2 IDEAL LOADS AIR SYSTEM OUTDOOR AIR INLET NODE
 Outdoor Air Node,64,OFFICE3 IDEAL LOADS AIR SYSTEM OUTDOOR AIR INLET NODE
 Outdoor Air Node,65,OFFICE4 IDEAL LOADS AIR SYSTEM OUTDOOR AIR INLET NODE
! ===============================================================
! <#Component Sets>,<Number of Component Sets>
 #Component Sets,0
! <Component Set>,<Component Set Count>,<Parent Object Type>,<Parent Object Name>,<Component Type>,<Component Name>,<Inlet Node ID>,<Outlet Node ID>,<Description>
! ===============================================================
! <# Plant Loops>,<Number of Plant Loops>
 #Plant Loops,0
! <Plant Loop>,<Plant Loop Name>,<Loop Type>,<Inlet Node Name>,<Outlet Node Name>,<Branch List>,<Connector List>
! <Plant Loop Connector>,<Connector Type>,<Connector Name>,<Loop Name>,<Loop Type>,<Number of Inlets/Outlets>
! <Plant Loop Connector Branches>,<Connector Node Count>,<Connector Type>,<Connector Name>,<Inlet Branch>,<Outlet Branch>,<Loop Name>,<Loop Type>
! <Plant Loop Connector Nodes>,<Connector Node Count>,<Connector Type>,<Connector Name>,<Inlet Node>,<Outlet Node>,<Loop Name>,<Loop Type>
! <Plant Loop Supply Connection>,<Plant Loop Name>,<Supply Side Outlet Node Name>,<Demand Side Inlet Node Name>
! <Plant Loop Return Connection>,<Plant Loop Name>,<Demand Side Outlet Node Name>,<Supply Side Inlet Node Name>
! ===============================================================
! <# Condenser Loops>,<Number of Condenser Loops>
 #Condenser Loops,0
! <Condenser Loop>,<Condenser Loop Name>,<Loop Type>,<Inlet Node Name>,<Outlet Node Name>,<Branch List>,<Connector List>
! <Condenser Loop Connector>,<Connector Type>,<Connector Name>,<Loop Name>,<Loop Type>,<Number of Inlets/Outlets>
! <Condenser Loop Connector Branches>,<Connector Node Count>,<Connector Type>,<Connector Name>,<Inlet Branch>,<Outlet Branch>,<Loop Name>,<Loop Type>
! <Condenser Loop Connector Nodes>,<Connector Node Count>,<Connector Type>,<Connector Name>,<Inlet Node>,<Outlet Node>,<Loop Name>,<Loop Type>
! <Condenser Loop Supply Connection>,<Condenser Loop Name>,<Supply Side Outlet Node Name>,<Demand Side Inlet Node Name>
! <Condenser Loop Return Connection>,<Condenser Loop Name>,<Demand Side Outlet Node Name>,<Supply Side Inlet Node Name>
! ===============================================================
! <# Controlled Zones>,<Number of Controlled Zones>
 #Controlled Zones,16
! <Controlled Zone>,<Controlled Zone Name>,<Equip List Name>,<Control List Name>,<Zone Node Name>,<# Inlet Nodes>,<# Exhaust Nodes>,<# Return Nodes>
! <Controlled Zone Inlet>,<Inlet Node Count>,<Controlled Zone Name>,<Supply Air Inlet Node Name>,<SD Sys:Cooling/Heating [DD:Cooling] Inlet Node Name>,<DD Sys:Heating Inlet Node Name>
! <Controlled Zone Exhaust>,<Exhaust Node Count>,<Controlled Zone Name>,<Exhaust Air Node Name>
 Controlled Zone,FLR1_OFFICE1,FLR1_OFFICE1 EQUIPMENT LIST,,{6D2DC2FF-3A83-4EEE-9B15-FEE11363D60F},1,1,0
   Controlled Zone Inlet,1,FLR1_OFFICE1,{312A8D5D-EFAD-4F34-A043-318222F9B3D1},Undefined,N/A
   Controlled Zone Exhaust,1,FLR1_OFFICE1,{4E65039F-C3A1-4D2D-AFDA-A3FADAAE5536}
 Controlled Zone,FLR1_OFFICE2,FLR1_OFFICE2 EQUIPMENT LIST,,{92655FFC-B697-4450-A67C-F082D4878334},1,1,0
   Controlled Zone Inlet,1,FLR1_OFFICE2,{9540BFB6-3666-44E8-8AC3-F38F05F4744D},Undefined,N/A
   Controlled Zone Exhaust,1,FLR1_OFFICE2,{C5C4D6D2-532D-4913-BDCA-1040FA967D1B}
 Controlled Zone,FLR1_OFFICE3,FLR1_OFFICE3 EQUIPMENT LIST,,{F7518323-80EC-4A9C-819C-762A02F2DEFF},1,1,0
   Controlled Zone Inlet,1,FLR1_OFFICE3,{8AAFCD0A-888F-4766-87B0-BF770769EA3C},Undefined,N/A
   Controlled Zone Exhaust,1,FLR1_OFFICE3,{C182419D-5368-4D12-8734-305357537103}
 Controlled Zone,FLR1_OFFICE4,FLR1_OFFICE4 EQUIPMENT LIST,,{184A54DB-FA39-40A3-AF7A-DA6DA5520CE9},1,1,0
   Controlled Zone Inlet,1,FLR1_OFFICE4,{871124D3-8D21-4F79-AF47-8E4E923FDD07},Undefined,N/A
   Controlled Zone Exhaust,1,FLR1_OFFICE4,{AE1BF4B0-1D29-47C6-A272-A258F592EEFA}
 Controlled Zone,FLR2_OFFICE1,FLR2_OFFICE1 EQUIPMENT LIST,,{79E2B74E-FD01-41D0-B6B4-FF20CE4EA2E0},1,1,0
   Controlled Zone Inlet,1,FLR2_OFFICE1,{8C3BC6EB-6C20-4FCC-AA51-190141BF27EB},Undefined,N/A
   Controlled Zone Exhaust,1,FLR2_OFFICE1,{1945CA15-E25E-4159-8402-5916E7175383}
 Controlled Zone,FLR2_OFFICE2,FLR2_OFFICE2 EQUIPMENT LIST,,{6911F45A-F18E-4304-A2F8-9BCCC63FAC5C},1,1,0
   Controlled Zone Inlet,1,FLR2_OFFICE2,{7BE10957-A0FC-4399-8BD6-DE602B57179C},Undefined,N/A
   Controlled Zone Exhaust,1,FLR2_OFFICE2,{D76B17AD-F58A-494F-8422-F4A934111730}
 Controlled Zone,FLR2_OFFICE3,FLR2_OFFICE3 EQUIPMENT LIST,,{E0404C84-4863-457A-A3D6-34EE521601D5},1,1,0
   Controlled Zone Inlet,1,FLR2_OFFICE3,{191D19E3-E991-44D7-B444-F82B9ECF4E40},Undefined,N/A
   Controlled Zone Exhaust,1,FLR2_OFFICE3,{2B385707-1CD1-4ACA-973B-70811CE6C80B}
 Controlled Zone,FLR2_OFFICE4,FLR2_OFFICE4 EQUIPMENT LIST,,{B6F4AE25-6B00-463B-A04D-E45F3981EE27},1,1,0
   Controlled Zone Inlet,1,FLR2_OFFICE4,{86B9A167-15A4-4CE9-8916-1D693899BBFA},Undefined,N/A
   Controlled Zone Exhaust,1,FLR2_OFFICE4,{B80F4A44-A25F-4CC3-BFA7-9EF41D2BACA7}
 Controlled Zone,FLR3_OFFICE1,FLR3_OFFICE1 EQUIPMENT LIST,,{1B44D53D-5579-43F0-965C-E26B000659AA},1,1,0
   Controlled Zone Inlet,1,FLR3_OFFICE1,{C6AA962E-B6EF-4B0E-83C7-96F548869251},Undefined,N/A
   Controlled Zone Exhaust,1,FLR3_OFFICE1,{E76A09E9-74A7-4520-BBA2-E524F25AD060}
 Controlled Zone,FLR3_OFFICE2,FLR3_OFFICE2 EQUIPMENT LIST,,{53C19609-899F-4F42-9A83-B2A73B62CE62},1,1,0
   Controlled Zone Inlet,1,FLR3_OFFICE2,{58C76649-73EF-4A47-B3EC-0AE28A67810A},Undefined,N/A
   Controlled Zone Exhaust,1,FLR3_OFFICE2,{DD9FFA4D-6758-462C-B466-1F6F3A76E944}
 Controlled Zone,FLR3_OFFICE3,FLR3_OFFICE3 EQUIPMENT LIST,,{16630099-D038-43AD-A4FC-7CB131B6DDB6},1,1,0
   Controlled Zone Inlet,1,FLR3_OFFICE3,{EA3CB4C7-B2EE-4383-AA53-EBB1E61B1841},Undefined,N/A
   Controlled Zone Exhaust,1,FLR3_OFFICE3,{EAB73D0A-EA95-4BC0-8477-5831F8009ED5}
 Controlled Zone,FLR3_OFFICE4,FLR3_OFFICE4 EQUIPMENT LIST,,{8422218C-0890-4BA1-A1DA-44B65F57CFB1},1,1,0
   Controlled Zone Inlet,1,FLR3_OFFICE4,{AD9CC430-6A0B-444D-8F58-A3C32B453C76},Undefined,N/A
   Controlled Zone Exhaust,1,FLR3_OFFICE4,{E92CF82F-0580-45C0-86C3-925A00D811C1}
 Controlled Zone,OFFICE1,OFFICE1 EQUIPMENT LIST,,{59A35096-DEA5-4E9F-A628-85E3FB1520FD},1,1,0
   Controlled Zone Inlet,1,OFFICE1,{0D3495CA-094D-4880-A0D1-474DED9704D1},Undefined,N/A
   Controlled Zone Exhaust,1,OFFICE1,{5D0A9B03-7C71-41B0-B24C-F9826FF26518}
 Controlled Zone,OFFICE2,OFFICE2 EQUIPMENT LIST,,{A4F58666-E8AD-4359-A3B6-F296494675CE},1,1,0
   Controlled Zone Inlet,1,OFFICE2,{C4BE4ED3-9E33-4EA8-9F3F-C26F4ED266F0},Undefined,N/A
   Controlled Zone Exhaust,1,OFFICE2,{BB5DD701-15C2-40E1-9CA9-2485A04002F5}
 Controlled Zone,OFFICE3,OFFICE3 EQUIPMENT LIST,,{C4E51858-CB84-487E-AD35-4DCD8A7E4476},1,1,0
   Controlled Zone Inlet,1,OFFICE3,{49AAEB17-D182-48B5-942A-C62FB49B80CD},Undefined,N/A
   Controlled Zone Exhaust,1,OFFICE3,{AE2B3BF3-C86F-4978-8E3E-09E55CCE7448}
 Controlled Zone,OFFICE4,OFFICE4 EQUIPMENT LIST,,{2CA5945E-727F-4440-81E8-60328376376D},1,1,0
   Controlled Zone Inlet,1,OFFICE4,{6ED4506C-6C1F-4525-BF14-F6A976AAE487},Undefined,N/A
   Controlled Zone Exhaust,1,OFFICE4,{7E551D2D-B470-42AD-9AA6-61E0A5BB8575}
! ===============================================================
! <#Zone Equipment Lists>,<Number of Zone Equipment Lists>
 #Zone Equipment Lists,16
! <Zone Equipment List>,<Zone Equipment List Count>,<Zone Equipment List Name>,<Zone Name>,<Number of Components>
! <Zone Equipment Component>,<Component Count>,<Component Type>,<Component Name>,<Zone Name>,<Heating Priority>,<Cooling Priority>
 Zone Equipment List,1,FLR1_OFFICE1 EQUIPMENT LIST,FLR1_OFFICE1,1
   Zone Equipment Component,1,ZONEHVAC:IDEALLOADSAIRSYSTEM,FLR1_OFFICE1 IDEAL LOADS AIR SYSTEM,FLR1_OFFICE1,1,1
 Zone Equipment List,2,FLR1_OFFICE2 EQUIPMENT LIST,FLR1_OFFICE2,1
   Zone Equipment Component,1,ZONEHVAC:IDEALLOADSAIRSYSTEM,FLR1_OFFICE2 IDEAL LOADS AIR SYSTEM,FLR1_OFFICE2,1,1
 Zone Equipment List,3,FLR1_OFFICE3 EQUIPMENT LIST,FLR1_OFFICE3,1
   Zone Equipment Component,1,ZONEHVAC:IDEALLOADSAIRSYSTEM,FLR1_OFFICE3 IDEAL LOADS AIR SYSTEM,FLR1_OFFICE3,1,1
 Zone Equipment List,4,FLR1_OFFICE4 EQUIPMENT LIST,FLR1_OFFICE4,1
   Zone Equipment Component,1,ZONEHVAC:IDEALLOADSAIRSYSTEM,FLR1_OFFICE4 IDEAL LOADS AIR SYSTEM,FLR1_OFFICE4,1,1
 Zone Equipment List,5,FLR2_OFFICE1 EQUIPMENT LIST,FLR2_OFFICE1,1
   Zone Equipment Component,1,ZONEHVAC:IDEALLOADSAIRSYSTEM,FLR2_OFFICE1 IDEAL LOADS AIR SYSTEM,FLR2_OFFICE1,1,1
 Zone Equipment List,6,FLR2_OFFICE2 EQUIPMENT LIST,FLR2_OFFICE2,1
   Zone Equipment Component,1,ZONEHVAC:IDEALLOADSAIRSYSTEM,FLR2_OFFICE2 IDEAL LOADS AIR SYSTEM,FLR2_OFFICE2,1,1
 Zone Equipment List,7,FLR2_OFFICE3 EQUIPMENT LIST,FLR2_OFFICE3,1
   Zone Equipment Component,1,ZONEHVAC:IDEALLOADSAIRSYSTEM,FLR2_OFFICE3 IDEAL LOADS AIR SYSTEM,FLR2_OFFICE3,1,1
 Zone Equipment List,8,FLR2_OFFICE4 EQUIPMENT LIST,FLR2_OFFICE4,1
   Zone Equipment Component,1,ZONEHVAC:IDEALLOADSAIRSYSTEM,FLR2_OFFICE4 IDEAL LOADS AIR SYSTEM,FLR2_OFFICE4,1,1
 Zone Equipment List,9,FLR3_OFFICE1 EQUIPMENT LIST,FLR3_OFFICE1,1
   Zone Equipment Component,1,ZONEHVAC:IDEALLOADSAIRSYSTEM,FLR3_OFFICE1 IDEAL LOADS AIR SYSTEM,FLR3_OFFICE1,1,1
 Zone Equipment List,10,FLR3_OFFICE2 EQUIPMENT LIST,FLR3_OFFICE2,1
   Zone Equipment Component,1,ZONEHVAC:IDEALLOADSAIRSYSTEM,FLR3_OFFICE2 IDEAL LOADS AIR SYSTEM,FLR3_OFFICE2,1,1
 Zone Equipment List,11,FLR3_OFFICE3 EQUIPMENT LIST,FLR3_OFFICE3,1
   Zone Equipment Component,1,ZONEHVAC:IDEALLOADSAIRSYSTEM,FLR3_OFFICE3 IDEAL LOADS AIR SYSTEM,FLR3_OFFICE3,1,1
 Zone Equipment List,12,FLR3_OFFICE4 EQUIPMENT LIST,FLR3_OFFICE4,1
   Zone Equipment Component,1,ZONEHVAC:IDEALLOADSAIRSYSTEM,FLR3_OFFICE4 IDEAL LOADS AIR SYSTEM,FLR3_OFFICE4,1,1
 Zone Equipment List,13,OFFICE1 EQUIPMENT LIST,OFFICE1,1
   Zone Equipment Component,1,ZONEHVAC:IDEALLOADSAIRSYSTEM,OFFICE1 IDEAL LOADS AIR SYSTEM,OFFICE1,1,1
 Zone Equipment List,14,OFFICE2 EQUIPMENT LIST,OFFICE2,1
   Zone Equipment Component,1,ZONEHVAC:IDEALLOADSAIRSYSTEM,OFFICE2 IDEAL LOADS AIR SYSTEM,OFFICE2,1,1
 Zone Equipment List,15,OFFICE3 EQUIPMENT LIST,OFFICE3,1
   Zone Equipment Component,1,ZONEHVAC:IDEALLOADSAIRSYSTEM,OFFICE3 IDEAL LOADS AIR SYSTEM,OFFICE3,1,1
 Zone Equipment List,16,OFFICE4 EQUIPMENT LIST,OFFICE4,1
   Zone Equipment Component,1,ZONEHVAC:IDEALLOADSAIRSYSTEM,OFFICE4 IDEAL LOADS AIR SYSTEM,OFFICE4,1,1
! ===============================================================
! <#AirLoopHVACs>,<Number of AirLoopHVACs>
 #AirLoopHVACs,0
! <AirLoopHVAC>,<Air Loop Name>,<# Return Nodes>,<# Supply Nodes>,<# Zones Cooled>,<# Zones Heated>,<Outdoor Air Used>
! <AirLoop Return Connections>,<Connection Count>,<AirLoopHVAC Name>,<Zn Eqp Return Node #>,<Zn Eqp Return Node Name>,<AirLoop Return Node #>,<Air Loop Return Node Name>
! <AirLoop Supply Connections>,<Connection Count>,<AirLoopHVAC Name>,<Zn Eqp Supply Node #>,<Zn Eqp Supply Node Name>,<AirLoop Supply Node #>,<Air Loop Supply Node Name>
! <Cooled Zone Info>,<Cooled Zone Count>,<Cooled Zone Name>,<Cooled Zone Inlet Node #>,<Cooled Zone Inlet Node Name>,<AirLoopHVAC Name>
! <Heated Zone Info>,<Heated Zone Count>,<Heated Zone Name>,<Heated Zone Inlet Node #>,<Heated Zone Inlet Node Name>,<AirLoopHVAC Name>
! <Outdoor Air Connections>,<OA Inlet Node #>,<OA Return Air Inlet Node Name>,<OA Outlet Node #>,<OA Mixed Air Outlet Node Name>,<AirLoopHVAC Name>
! <AirLoopHVAC Connector>,<Connector Type>,<Connector Name>,<Loop Name>,<Loop Type>,<Number of Inlets/Outlets>
! <AirLoopHVAC Connector Branches>,<Connector Node Count>,<Connector Type>,<Connector Name>,<Inlet Branch>,<Outlet Branch>,<Loop Name>,<Loop Type>
! <AirLoopHVAC Connector Nodes>,<Connector Node Count>,<Connector Type>,<Connector Name>,<Inlet Node>,<Outlet Node>,<Loop Name>,<Loop Type>
! ===============================================================
! <#Parent Node Connections>,<Number of Parent Node Connections>
 #Parent Node Connections,0
! <Parent Node Connection>,<Node Name>,<Node ObjectType>,<Node ObjectName>,<Node ConnectionType>,<Node FluidStream>
! ===============================================================
! <#Non-Parent Node Connections>,<Number of Non-Parent Node Connections>
 #Non-Parent Node Connections,113
! <Non-Parent Node Connection>,<Node Name>,<Node ObjectType>,<Node ObjectName>,<Node ConnectionType>,<Node FluidStream>
 Non-Parent Node Connection,{6D2DC2FF-3A83-4EEE-9B15-FEE11363D60F},ZONEHVAC:EQUIPMENTCONNECTIONS,FLR1_OFFICE1,ZoneNode,1
 Non-Parent Node Connection,{312A8D5D-EFAD-4F34-A043-318222F9B3D1},ZONEHVAC:EQUIPMENTCONNECTIONS,FLR1_OFFICE1,ZoneInlet,1
 Non-Parent Node Connection,{4E65039F-C3A1-4D2D-AFDA-A3FADAAE5536},ZONEHVAC:EQUIPMENTCONNECTIONS,FLR1_OFFICE1,ZoneExhaust,1
 Non-Parent Node Connection,{92655FFC-B697-4450-A67C-F082D4878334},ZONEHVAC:EQUIPMENTCONNECTIONS,FLR1_OFFICE2,ZoneNode,1
 Non-Parent Node Connection,{9540BFB6-3666-44E8-8AC3-F38F05F4744D},ZONEHVAC:EQUIPMENTCONNECTIONS,FLR1_OFFICE2,ZoneInlet,1
 Non-Parent Node Connection,{C5C4D6D2-532D-4913-BDCA-1040FA967D1B},ZONEHVAC:EQUIPMENTCONNECTIONS,FLR1_OFFICE2,ZoneExhaust,1
 Non-Parent Node Connection,{F7518323-80EC-4A9C-819C-762A02F2DEFF},ZONEHVAC:EQUIPMENTCONNECTIONS,FLR1_OFFICE3,ZoneNode,1
 Non-Parent Node Connection,{8AAFCD0A-888F-4766-87B0-BF770769EA3C},ZONEHVAC:EQUIPMENTCONNECTIONS,FLR1_OFFICE3,ZoneInlet,1
 Non-Parent Node Connection,{C182419D-5368-4D12-8734-305357537103},ZONEHVAC:EQUIPMENTCONNECTIONS,FLR1_OFFICE3,ZoneExhaust,1
 Non-Parent Node Connection,{184A54DB-FA39-40A3-AF7A-DA6DA5520CE9},ZONEHVAC:EQUIPMENTCONNECTIONS,FLR1_OFFICE4,ZoneNode,1
 Non-Parent Node Connection,{871124D3-8D21-4F79-AF47-8E4E923FDD07},ZONEHVAC:EQUIPMENTCONNECTIONS,FLR1_OFFICE4,ZoneInlet,1
 Non-Parent Node Connection,{AE1BF4B0-1D29-47C6-A272-A258F592EEFA},ZONEHVAC:EQUIPMENTCONNECTIONS,FLR1_OFFICE4,ZoneExhaust,1
 Non-Parent Node Connection,{79E2B74E-FD01-41D0-B6B4-FF20CE4EA2E0},ZONEHVAC:EQUIPMENTCONNECTIONS,FLR2_OFFICE1,ZoneNode,1
 Non-Parent Node Connection,{8C3BC6EB-6C20-4FCC-AA51-190141BF27EB},ZONEHVAC:EQUIPMENTCONNECTIONS,FLR2_OFFICE1,ZoneInlet,1
 Non-Parent Node Connection,{1945CA15-E25E-4159-8402-5916E7175383},ZONEHVAC:EQUIPMENTCONNECTIONS,FLR2_OFFICE1,ZoneExhaust,1
 Non-Parent Node Connection,{6911F45A-F18E-4304-A2F8-9BCCC63FAC5C},ZONEHVAC:EQUIPMENTCONNECTIONS,FLR2_OFFICE2,ZoneNode,1
 Non-Parent Node Connection,{7BE10957-A0FC-4399-8BD6-DE602B57179C},ZONEHVAC:EQUIPMENTCONNECTIONS,FLR2_OFFICE2,ZoneInlet,1
 Non-Parent Node Connection,{D76B17AD-F58A-494F-8422-F4A934111730},ZONEHVAC:EQUIPMENTCONNECTIONS,FLR2_OFFICE2,ZoneExhaust,1
 Non-Parent Node Connection,{E0404C84-4863-457A-A3D6-34EE521601D5},ZONEHVAC:EQUIPMENTCONNECTIONS,FLR2_OFFICE3,ZoneNode,1
 Non-Parent Node Connection,{191D19E3-E991-44D7-B444-F82B9ECF4E40},ZONEHVAC:EQUIPMENTCONNECTIONS,FLR2_OFFICE3,ZoneInlet,1
 Non-Parent Node Connection,{2B385707-1CD1-4ACA-973B-70811CE6C80B},ZONEHVAC:EQUIPMENTCONNECTIONS,FLR2_OFFICE3,ZoneExhaust,1
 Non-Parent Node Connection,{B6F4AE25-6B00-463B-A04D-E45F3981EE27},ZONEHVAC:EQUIPMENTCONNECTIONS,FLR2_OFFICE4,ZoneNode,1
 Non-Parent Node Connection,{86B9A167-15A4-4CE9-8916-1D693899BBFA},ZONEHVAC:EQUIPMENTCONNECTIONS,FLR2_OFFICE4,ZoneInlet,1
 Non-Parent Node Connection,{B80F4A44-A25F-4CC3-BFA7-9EF41D2BACA7},ZONEHVAC:EQUIPMENTCONNECTIONS,FLR2_OFFICE4,ZoneExhaust,1
 Non-Parent Node Connection,{1B44D53D-5579-43F0-965C-E26B000659AA},ZONEHVAC:EQUIPMENTCONNECTIONS,FLR3_OFFICE1,ZoneNode,1
 Non-Parent Node Connection,{C6AA962E-B6EF-4B0E-83C7-96F548869251},ZONEHVAC:EQUIPMENTCONNECTIONS,FLR3_OFFICE1,ZoneInlet,1
 Non-Parent Node Connection,{E76A09E9-74A7-4520-BBA2-E524F25AD060},ZONEHVAC:EQUIPMENTCONNECTIONS,FLR3_OFFICE1,ZoneExhaust,1
 Non-Parent Node Connection,{53C19609-899F-4F42-9A83-B2A73B62CE62},ZONEHVAC:EQUIPMENTCONNECTIONS,FLR3_OFFICE2,ZoneNode,1
 Non-Parent Node Connection,{58C76649-73EF-4A47-B3EC-0AE28A67810A},ZONEHVAC:EQUIPMENTCONNECTIONS,FLR3_OFFICE2,ZoneInlet,1
 Non-Parent Node Connection,{DD9FFA4D-6758-462C-B466-1F6F3A76E944},ZONEHVAC:EQUIPMENTCONNECTIONS,FLR3_OFFICE2,ZoneExhaust,1
 Non-Parent Node Connection,{16630099-D038-43AD-A4FC-7CB131B6DDB6},ZONEHVAC:EQUIPMENTCONNECTIONS,FLR3_OFFICE3,ZoneNode,1
 Non-Parent Node Connection,{EA3CB4C7-B2EE-4383-AA53-EBB1E61B1841},ZONEHVAC:EQUIPMENTCONNECTIONS,FLR3_OFFICE3,ZoneInlet,1
 Non-Parent Node Connection,{EAB73D0A-EA95-4BC0-8477-5831F8009ED5},ZONEHVAC:EQUIPMENTCONNECTIONS,FLR3_OFFICE3,ZoneExhaust,1
 Non-Parent Node Connection,{8422218C-0890-4BA1-A1DA-44B65F57CFB1},ZONEHVAC:EQUIPMENTCONNECTIONS,FLR3_OFFICE4,ZoneNode,1
 Non-Parent Node Connection,{AD9CC430-6A0B-444D-8F58-A3C32B453C76},ZONEHVAC:EQUIPMENTCONNECTIONS,FLR3_OFFICE4,ZoneInlet,1
 Non-Parent Node Connection,{E92CF82F-0580-45C0-86C3-925A00D811C1},ZONEHVAC:EQUIPMENTCONNECTIONS,FLR3_OFFICE4,ZoneExhaust,1
 Non-Parent Node Connection,{59A35096-DEA5-4E9F-A628-85E3FB1520FD},ZONEHVAC:EQUIPMENTCONNECTIONS,OFFICE1,ZoneNode,1
 Non-Parent Node Connection,{0D3495CA-094D-4880-A0D1-474DED9704D1},ZONEHVAC:EQUIPMENTCONNECTIONS,OFFICE1,ZoneInlet,1
 Non-Parent Node Connection,{5D0A9B03-7C71-41B0-B24C-F9826FF26518},ZONEHVAC:EQUIPMENTCONNECTIONS,OFFICE1,ZoneExhaust,1
 Non-Parent Node Connection,{A4F58666-E8AD-4359-A3B6-F296494675CE},ZONEHVAC:EQUIPMENTCONNECTIONS,OFFICE2,ZoneNode,1
 Non-Parent Node Connection,{C4BE4ED3-9E33-4EA8-9F3F-C26F4ED266F0},ZONEHVAC:EQUIPMENTCONNECTIONS,OFFICE2,ZoneInlet,1
 Non-Parent Node Connection,{BB5DD701-15C2-40E1-9CA9-2485A04002F5},ZONEHVAC:EQUIPMENTCONNECTIONS,OFFICE2,ZoneExhaust,1
 Non-Parent Node Connection,{C4E51858-CB84-487E-AD35-4DCD8A7E4476},ZONEHVAC:EQUIPMENTCONNECTIONS,OFFICE3,ZoneNode,1
 Non-Parent Node Connection,{49AAEB17-D182-48B5-942A-C62FB49B80CD},ZONEHVAC:EQUIPMENTCONNECTIONS,OFFICE3,ZoneInlet,1
 Non-Parent Node Connection,{AE2B3BF3-C86F-4978-8E3E-09E55CCE7448},ZONEHVAC:EQUIPMENTCONNECTIONS,OFFICE3,ZoneExhaust,1
 Non-Parent Node Connection,{2CA5945E-727F-4440-81E8-60328376376D},ZONEHVAC:EQUIPMENTCONNECTIONS,OFFICE4,ZoneNode,1
 Non-Parent Node Connection,{6ED4506C-6C1F-4525-BF14-F6A976AAE487},ZONEHVAC:EQUIPMENTCONNECTIONS,OFFICE4,ZoneInlet,1
 Non-Parent Node Connection,{7E551D2D-B470-42AD-9AA6-61E0A5BB8575},ZONEHVAC:EQUIPMENTCONNECTIONS,OFFICE4,ZoneExhaust,1
 Non-Parent Node Connection,MODEL OUTDOOR AIR NODE,OUTDOORAIR:NODE,OutdoorAir:Node,OutdoorAir,1
 Non-Parent Node Connection,{312A8D5D-EFAD-4F34-A043-318222F9B3D1},ZONEHVAC:IDEALLOADSAIRSYSTEM,FLR1_OFFICE1 IDEAL LOADS AIR SYSTEM,Outlet,1
 Non-Parent Node Connection,{4E65039F-C3A1-4D2D-AFDA-A3FADAAE5536},ZONEHVAC:IDEALLOADSAIRSYSTEM,FLR1_OFFICE1 IDEAL LOADS AIR SYSTEM,Inlet,1
 Non-Parent Node Connection,FLR1_OFFICE1 IDEAL LOADS AIR SYSTEM OUTDOOR AIR INLET NODE,ZONEHVAC:IDEALLOADSAIRSYSTEM,FLR1_OFFICE1 IDEAL LOADS AIR SYSTEM,Outlet,1
 Non-Parent Node Connection,FLR1_OFFICE1 IDEAL LOADS AIR SYSTEM OUTDOOR AIR INLET NODE,OUTDOORAIR:NODE,OutdoorAir:Node,OutdoorAir,2
 Non-Parent Node Connection,{9540BFB6-3666-44E8-8AC3-F38F05F4744D},ZONEHVAC:IDEALLOADSAIRSYSTEM,FLR1_OFFICE2 IDEAL LOADS AIR SYSTEM,Outlet,1
 Non-Parent Node Connection,{C5C4D6D2-532D-4913-BDCA-1040FA967D1B},ZONEHVAC:IDEALLOADSAIRSYSTEM,FLR1_OFFICE2 IDEAL LOADS AIR SYSTEM,Inlet,1
 Non-Parent Node Connection,FLR1_OFFICE2 IDEAL LOADS AIR SYSTEM OUTDOOR AIR INLET NODE,ZONEHVAC:IDEALLOADSAIRSYSTEM,FLR1_OFFICE2 IDEAL LOADS AIR SYSTEM,Outlet,1
 Non-Parent Node Connection,FLR1_OFFICE2 IDEAL LOADS AIR SYSTEM OUTDOOR AIR INLET NODE,OUTDOORAIR:NODE,OutdoorAir:Node,OutdoorAir,3
 Non-Parent Node Connection,{8AAFCD0A-888F-4766-87B0-BF770769EA3C},ZONEHVAC:IDEALLOADSAIRSYSTEM,FLR1_OFFICE3 IDEAL LOADS AIR SYSTEM,Outlet,1
 Non-Parent Node Connection,{C182419D-5368-4D12-8734-305357537103},ZONEHVAC:IDEALLOADSAIRSYSTEM,FLR1_OFFICE3 IDEAL LOADS AIR SYSTEM,Inlet,1
 Non-Parent Node Connection,FLR1_OFFICE3 IDEAL LOADS AIR SYSTEM OUTDOOR AIR INLET NODE,ZONEHVAC:IDEALLOADSAIRSYSTEM,FLR1_OFFICE3 IDEAL LOADS AIR SYSTEM,Outlet,1
 Non-Parent Node Connection,FLR1_OFFICE3 IDEAL LOADS AIR SYSTEM OUTDOOR AIR INLET NODE,OUTDOORAIR:NODE,OutdoorAir:Node,OutdoorAir,4
 Non-Parent Node Connection,{871124D3-8D21-4F79-AF47-8E4E923FDD07},ZONEHVAC:IDEALLOADSAIRSYSTEM,FLR1_OFFICE4 IDEAL LOADS AIR SYSTEM,Outlet,1
 Non-Parent Node Connection,{AE1BF4B0-1D29-47C6-A272-A258F592EEFA},ZONEHVAC:IDEALLOADSAIRSYSTEM,FLR1_OFFICE4 IDEAL LOADS AIR SYSTEM,Inlet,1
 Non-Parent Node Connection,FLR1_OFFICE4 IDEAL LOADS AIR SYSTEM OUTDOOR AIR INLET NODE,ZONEHVAC:IDEALLOADSAIRSYSTEM,FLR1_OFFICE4 IDEAL LOADS AIR SYSTEM,Outlet,1
 Non-Parent Node Connection,FLR1_OFFICE4 IDEAL LOADS AIR SYSTEM OUTDOOR AIR INLET NODE,OUTDOORAIR:NODE,OutdoorAir:Node,OutdoorAir,5
 Non-Parent Node Connection,{8C3BC6EB-6C20-4FCC-AA51-190141BF27EB},ZONEHVAC:IDEALLOADSAIRSYSTEM,FLR2_OFFICE1 IDEAL LOADS AIR SYSTEM,Outlet,1
 Non-Parent Node Connection,{1945CA15-E25E-4159-8402-5916E7175383},ZONEHVAC:IDEALLOADSAIRSYSTEM,FLR2_OFFICE1 IDEAL LOADS AIR SYSTEM,Inlet,1
 Non-Parent Node Connection,FLR2_OFFICE1 IDEAL LOADS AIR SYSTEM OUTDOOR AIR INLET NODE,ZONEHVAC:IDEALLOADSAIRSYSTEM,FLR2_OFFICE1 IDEAL LOADS AIR SYSTEM,Outlet,1
 Non-Parent Node Connection,FLR2_OFFICE1 IDEAL LOADS AIR SYSTEM OUTDOOR AIR INLET NODE,OUTDOORAIR:NODE,OutdoorAir:Node,OutdoorAir,6
 Non-Parent Node Connection,{7BE10957-A0FC-4399-8BD6-DE602B57179C},ZONEHVAC:IDEALLOADSAIRSYSTEM,FLR2_OFFICE2 IDEAL LOADS AIR SYSTEM,Outlet,1
 Non-Parent Node Connection,{D76B17AD-F58A-494F-8422-F4A934111730},ZONEHVAC:IDEALLOADSAIRSYSTEM,FLR2_OFFICE2 IDEAL LOADS AIR SYSTEM,Inlet,1
 Non-Parent Node Connection,FLR2_OFFICE2 IDEAL LOADS AIR SYSTEM OUTDOOR AIR INLET NODE,ZONEHVAC:IDEALLOADSAIRSYSTEM,FLR2_OFFICE2 IDEAL LOADS AIR SYSTEM,Outlet,1
 Non-Parent Node Connection,FLR2_OFFICE2 IDEAL LOADS AIR SYSTEM OUTDOOR AIR INLET NODE,OUTDOORAIR:NODE,OutdoorAir:Node,OutdoorAir,7
 Non-Parent Node Connection,{191D19E3-E991-44D7-B444-F82B9ECF4E40},ZONEHVAC:IDEALLOADSAIRSYSTEM,FLR2_OFFICE3 IDEAL LOADS AIR SYSTEM,Outlet,1
 Non-Parent Node Connection,{2B385707-1CD1-4ACA-973B-70811CE6C80B},ZONEHVAC:IDEALLOADSAIRSYSTEM,FLR2_OFFICE3 IDEAL LOADS AIR SYSTEM,Inlet,1
 Non-Parent Node Connection,FLR2_OFFICE3 IDEAL LOADS AIR SYSTEM OUTDOOR AIR INLET NODE,ZONEHVAC:IDEALLOADSAIRSYSTEM,FLR2_OFFICE3 IDEAL LOADS AIR SYSTEM,Outlet,1
 Non-Parent Node Connection,FLR2_OFFICE3 IDEAL LOADS AIR SYSTEM OUTDOOR AIR INLET NODE,OUTDOORAIR:NODE,OutdoorAir:Node,OutdoorAir,8
 Non-Parent Node Connection,{86B9A167-15A4-4CE9-8916-1D693899BBFA},ZONEHVAC:IDEALLOADSAIRSYSTEM,FLR2_OFFICE4 IDEAL LOADS AIR SYSTEM,Outlet,1
 Non-Parent Node Connection,{B80F4A44-A25F-4CC3-BFA7-9EF41D2BACA7},ZONEHVAC:IDEALLOADSAIRSYSTEM,FLR2_OFFICE4 IDEAL LOADS AIR SYSTEM,Inlet,1
 Non-Parent Node Connection,FLR2_OFFICE4 IDEAL LOADS AIR SYSTEM OUTDOOR AIR INLET NODE,ZONEHVAC:IDEALLOADSAIRSYSTEM,FLR2_OFFICE4 IDEAL LOADS AIR SYSTEM,Outlet,1
 Non-Parent Node Connection,FLR2_OFFICE4 IDEAL LOADS AIR SYSTEM OUTDOOR AIR INLET NODE,OUTDOORAIR:NODE,OutdoorAir:Node,OutdoorAir,9
 Non-Parent Node Connection,{C6AA962E-B6EF-4B0E-83C7-96F548869251},ZONEHVAC:IDEALLOADSAIRSYSTEM,FLR3_OFFICE1 IDEAL LOADS AIR SYSTEM,Outlet,1
 Non-Parent Node Connection,{E76A09E9-74A7-4520-BBA2-E524F25AD060},ZONEHVAC:IDEALLOADSAIRSYSTEM,FLR3_OFFICE1 IDEAL LOADS AIR SYSTEM,Inlet,1
 Non-Parent Node Connection,FLR3_OFFICE1 IDEAL LOADS AIR SYSTEM OUTDOOR AIR INLET NODE,ZONEHVAC:IDEALLOADSAIRSYSTEM,FLR3_OFFICE1 IDEAL LOADS AIR SYSTEM,Outlet,1
 Non-Parent Node Connection,FLR3_OFFICE1 IDEAL LOADS AIR SYSTEM OUTDOOR AIR INLET NODE,OUTDOORAIR:NODE,OutdoorAir:Node,OutdoorAir,10
 Non-Parent Node Connection,{58C76649-73EF-4A47-B3EC-0AE28A67810A},ZONEHVAC:IDEALLOADSAIRSYSTEM,FLR3_OFFICE2 IDEAL LOADS AIR SYSTEM,Outlet,1
 Non-Parent Node Connection,{DD9FFA4D-6758-462C-B466-1F6F3A76E944},ZONEHVAC:IDEALLOADSAIRSYSTEM,FLR3_OFFICE2 IDEAL LOADS AIR SYSTEM,Inlet,1
 Non-Parent Node Connection,FLR3_OFFICE2 IDEAL LOADS AIR SYSTEM OUTDOOR AIR INLET NODE,ZONEHVAC:IDEALLOADSAIRSYSTEM,FLR3_OFFICE2 IDEAL LOADS AIR SYSTEM,Outlet,1
 Non-Parent Node Connection,FLR3_OFFICE2 IDEAL LOADS AIR SYSTEM OUTDOOR AIR INLET NODE,OUTDOORAIR:NODE,OutdoorAir:Node,OutdoorAir,11
 Non-Parent Node Connection,{EA3CB4C7-B2EE-4383-AA53-EBB1E61B1841},ZONEHVAC:IDEALLOADSAIRSYSTEM,FLR3_OFFICE3 IDEAL LOADS AIR SYSTEM,Outlet,1
 Non-Parent Node Connection,{EAB73D0A-EA95-4BC0-8477-5831F8009ED5},ZONEHVAC:IDEALLOADSAIRSYSTEM,FLR3_OFFICE3 IDEAL LOADS AIR SYSTEM,Inlet,1
 Non-Parent Node Connection,FLR3_OFFICE3 IDEAL LOADS AIR SYSTEM OUTDOOR AIR INLET NODE,ZONEHVAC:IDEALLOADSAIRSYSTEM,FLR3_OFFICE3 IDEAL LOADS AIR SYSTEM,Outlet,1
 Non-Parent Node Connection,FLR3_OFFICE3 IDEAL LOADS AIR SYSTEM OUTDOOR AIR INLET NODE,OUTDOORAIR:NODE,OutdoorAir:Node,OutdoorAir,12
 Non-Parent Node Connection,{AD9CC430-6A0B-444D-8F58-A3C32B453C76},ZONEHVAC:IDEALLOADSAIRSYSTEM,FLR3_OFFICE4 IDEAL LOADS AIR SYSTEM,Outlet,1
 Non-Parent Node Connection,{E92CF82F-0580-45C0-86C3-925A00D811C1},ZONEHVAC:IDEALLOADSAIRSYSTEM,FLR3_OFFICE4 IDEAL LOADS AIR SYSTEM,Inlet,1
 Non-Parent Node Connection,FLR3_OFFICE4 IDEAL LOADS AIR SYSTEM OUTDOOR AIR INLET NODE,ZONEHVAC:IDEALLOADSAIRSYSTEM,FLR3_OFFICE4 IDEAL LOADS AIR SYSTEM,Outlet,1
 Non-Parent Node Connection,FLR3_OFFICE4 IDEAL LOADS AIR SYSTEM OUTDOOR AIR INLET NODE,OUTDOORAIR:NODE,OutdoorAir:Node,OutdoorAir,13
 Non-Parent Node Connection,{0D3495CA-094D-4880-A0D1-474DED9704D1},ZONEHVAC:IDEALLOADSAIRSYSTEM,OFFICE1 IDEAL LOADS AIR SYSTEM,Outlet,1
 Non-Parent Node Connection,{5D0A9B03-7C71-41B0-B24C-F9826FF26518},ZONEHVAC:IDEALLOADSAIRSYSTEM,OFFICE1 IDEAL LOADS AIR SYSTEM,Inlet,1
 Non-Parent Node Connection,OFFICE1 IDEAL LOADS AIR SYSTEM OUTDOOR AIR INLET NODE,ZONEHVAC:IDEALLOADSAIRSYSTEM,OFFICE1 IDEAL LOADS AIR SYSTEM,Outlet,1
 Non-Parent Node Connection,OFFICE1 IDEAL LOADS AIR SYSTEM OUTDOOR AIR INLET NODE,OUTDOORAIR:NODE,OutdoorAir:Node,OutdoorAir,14
 Non-Parent Node Connection,{C4BE4ED3-9E33-4EA8-9F3F-C26F4ED266F0},ZONEHVAC:IDEALLOADSAIRSYSTEM,OFFICE2 IDEAL LOADS AIR SYSTEM,Outlet,1
 Non-Parent Node Connection,{BB5DD701-15C2-40E1-9CA9-2485A04002F5},ZONEHVAC:IDEALLOADSAIRSYSTEM,OFFICE2 IDEAL LOADS AIR SYSTEM,Inlet,1
 Non-Parent Node Connection,OFFICE2 IDEAL LOADS AIR SYSTEM OUTDOOR AIR INLET NODE,ZONEHVAC:IDEALLOADSAIRSYSTEM,OFFICE2 IDEAL LOADS AIR SYSTEM,Outlet,1
 Non-Parent Node Connection,OFFICE2 IDEAL LOADS AIR SYSTEM OUTDOOR AIR INLET NODE,OUTDOORAIR:NODE,OutdoorAir:Node,OutdoorAir,15
 Non-Parent Node Connection,{49AAEB17-D182-48B5-942A-C62FB49B80CD},ZONEHVAC:IDEALLOADSAIRSYSTEM,OFFICE3 IDEAL LOADS AIR SYSTEM,Outlet,1
 Non-Parent Node Connection,{AE2B3BF3-C86F-4978-8E3E-09E55CCE7448},ZONEHVAC:IDEALLOADSAIRSYSTEM,OFFICE3 IDEAL LOADS AIR SYSTEM,Inlet,1
 Non-Parent Node Connection,OFFICE3 IDEAL LOADS AIR SYSTEM OUTDOOR AIR INLET NODE,ZONEHVAC:IDEALLOADSAIRSYSTEM,OFFICE3 IDEAL LOADS AIR SYSTEM,Outlet,1
 Non-Parent Node Connection,OFFICE3 IDEAL LOADS AIR SYSTEM OUTDOOR AIR INLET NODE,OUTDOORAIR:NODE,OutdoorAir:Node,OutdoorAir,16
 Non-Parent Node Connection,{6ED4506C-6C1F-4525-BF14-F6A976AAE487},ZONEHVAC:IDEALLOADSAIRSYSTEM,OFFICE4 IDEAL LOADS AIR SYSTEM,Outlet,1
 Non-Parent Node Connection,{7E551D2D-B470-42AD-9AA6-61E0A5BB8575},ZONEHVAC:IDEALLOADSAIRSYSTEM,OFFICE4 IDEAL LOADS AIR SYSTEM,Inlet,1
 Non-Parent Node Connection,OFFICE4 IDEAL LOADS AIR SYSTEM OUTDOOR AIR INLET NODE,ZONEHVAC:IDEALLOADSAIRSYSTEM,OFFICE4 IDEAL LOADS AIR SYSTEM,Outlet,1
 Non-Parent Node Connection,OFFICE4 IDEAL LOADS AIR SYSTEM OUTDOOR AIR INLET NODE,OUTDOORAIR:NODE,OutdoorAir:Node,OutdoorAir,17
